103
COMMENT::Generated by ChemToolKit written by Dr B.T Speake
N    0    0    0
C    1.456    0    0
C    1.93    0    1.463
O    1.16    0    2.421
H    -0.495    0.091    0.883
H    1.799    -0.926    -0.476
C    2.01    1.208    -0.746
H    1.657    1.23    -1.782
H    1.695    2.143    -0.268
H    3.104    1.197    -0.763
H    -0.508    0.077    -0.877
N    3.241    -0    1.742
C    3.69    0    3.127
C    5.228    0    3.127
O    5.902    -0    2.098
H    3.928    -0.091    0.999
H    3.343    0.926    3.6
C    3.151    -1.208    3.884
H    2.057    -1.23    3.869
H    3.508    -2.143    3.438
H    3.472    -1.197    4.931
N    5.898    0    4.287
C    7.353    0    4.287
C    7.828    0    5.75
O    7.058    0.001    6.709
H    5.403    0.092    5.17
H    7.696    -0.926    3.811
C    7.907    1.208    3.541
H    7.555    1.23    2.505
H    7.593    2.143    4.018
H    9.002    1.197    3.524
N    9.138    0    6.029
C    9.587    0.001    7.414
C    11.125    0    7.414
O    11.799    -0    6.386
H    9.825    -0.092    5.286
H    9.24    0.927    7.887
C    9.048    -1.207    8.171
H    7.954    -1.229    8.156
H    9.405    -2.142    7.726
H    9.37    -1.196    9.218
N    11.795    0.001    8.574
C    13.257    0    8.574
C    13.697    0.001    10.048
O    12.9    0.002    10.985
C    13.815    1.225    7.831
C    15.237    1.036    7.355
C    16.308    1.641    8.027
C    17.618    1.438    7.592
C    17.869    0.639    6.477
C    16.81    0.041    5.797
C    15.5    0.236    6.234
H    11.328    0.281    9.433
H    13.585    -0.939    8.112
H    13.752    2.118    8.467
H    13.201    1.454    6.95
H    16.13    2.272    8.895
H    18.445    1.91    8.117
H    18.889    0.489    6.133
H    17.003    -0.573    4.921
H    14.68    -0.233    5.69
N    15.001    0    10.358
C    15.418    0.001    11.752
C    16.955    0.001    11.788
O    17.653    -0    10.776
H    15.705    -0.092    9.631
H    15.06    0.927    12.217
C    14.861    -1.206    12.497
H    13.767    -1.228    12.457
H    15.228    -2.142    12.06
H    15.158    -1.195    13.551
N    17.598    0.001    12.964
C    19.053    0    12.998
C    19.494    0.001    14.471
O    18.701    0.002    15.412
H    17.083    0.093    13.835
H    19.407    -0.926    12.53
C    19.625    1.208    12.264
H    19.297    1.229    11.219
H    19.3    2.143    12.733
H    20.72    1.196    12.272
N    20.797    0.001    14.781
C    21.214    0.002    16.175
C    22.751    0.001    16.211
O    23.449    -0.001    15.199
H    21.502    -0.092    14.054
H    20.857    0.928    16.64
C    20.657    -1.206    16.921
H    19.563    -1.227    16.88
H    21.024    -2.141    16.484
H    20.954    -1.194    17.975
N    23.394    0.002    17.387
C    24.85    0    17.421
C    25.29    0.002    18.894
O    24.498    0.003    19.835
H    22.879    0.094    18.258
H    25.203    -0.926    16.953
C    25.421    1.208    16.687
H    25.093    1.229    15.642
H    25.097    2.143    17.156
H    26.517    1.196    16.695
O    26.62    0.001    19.131
H    27.305    -0    18.317
